**
**     _____ _ _         __  __           _ _  __ _          _ 
**    |  ___(_) | ___   |  \/  | ___   __| (_)/ _(_) ___  __| |
**    | |_  | | |/ _ \  | |\/| |/ _ \ / _` | | |_| |/ _ \/ _` |
**    |  _| | | |  __/  | |  | | (_) | (_| | |  _| |  __/ (_| |
**    |_|   |_|_|\___|  |_|  |_|\___/ \__,_|_|_| |_|\___|\__,_|
**
**    by SIMULIA Tosca Structure 3DEXPERIENCE R2021x Build R423 - 20200319T210011Z
**    Time: Tue May 18 12:50:31 2021
**
*Heading
** Job name: Opt-Process-1-Job Model name: Model-1
** Generated by: Abaqus/CAE 2021
*Preprint, echo=NO, model=NO, history=NO, contact=NO
** ----------------------------------------------------------------
** 
** PART INSTANCE: Part-1-1
** 
*Node
	      1,         100.,          50.,          50.
	      2,         100.,           0.,          50.
	      3,         100.,           0.,           0.
	      4,         100.,          50.,           0.
	      5,           0.,           0.,          50.
	      6,           0.,           0.,           0.
	      7,           0.,          50.,           0.
	      8,           0.,          50.,          50.
	      9,         100.,          45.,          50.
	     10,         100.,          40.,          50.
	     11,         100.,          35.,          50.
	     12,         100.,          30.,          50.
	     13,         100.,          25.,          50.
	     14,         100.,          20.,          50.
	     15,         100.,          15.,          50.
	     16,         100.,          10.,          50.
	     17,         100.,           5.,          50.
	     18,         100.,           0.,          45.
	     19,         100.,           0.,          40.
	     20,         100.,           0.,          35.
** ... 18898 like lines cut
*Element, type=C3D10
	    1,  1003,  1004,  1005,  1006,  2635,  2634,  2633,  2637,  2636,  2638
	    2,  1003,  1004,  1007,  1008,  2635,  2640,  2639,  2642,  2641,  2643
	    3,  1009,  1003,  1010,  1011,  2646,  2645,  2644,  2648,  2647,  2649
	    4,  1003,  1011,  1009,  1006,  2647,  2648,  2646,  2637,  2650,  2651
	    5,  1003,  1012,  1010,  1013,  2653,  2652,  2645,  2655,  2654,  2656
	    6,  1014,  1015,  1016,  1017,  2659,  2658,  2657,  2661,  2660,  2662
	    7,  1014,  1018,  1019,  1020,  2665,  2664,  2663,  2667,  2666,  2668
	    8,  1014,  1021,  1015,  1018,  2670,  2669,  2659,  2665,  2671,  2672
	    9,  1014,  1015,  1017,  1022,  2659,  2660,  2661,  2674,  2673,  2675
	   10,  1014,  1023,  1024,  1022,  2678,  2677,  2676,  2674,  2679,  2680
	   11,  1025,  1026,  1027,  1028,  2683,  2682,  2681,  2685,  2684,  2686
	   12,  1028,  1026,  1027,  1029,  2684,  2682,  2686,  2688,  2687,  2689
	   13,  1026,  1030,  1028,  1025,  2691,  2690,  2684,  2683,  2692,  2685
	   14,  1026,  1031,  1032,  1033,  2695,  2694,  2693,  2697,  2696,  2698
	   15,  1026,  1034,  1027,  1033,  2700,  2699,  2682,  2697,  2701,  2702
	   16,  1026,  1025,  1027,  1034,  2683,  2681,  2682,  2700,  2703,  2699
	   17,  1035,  1036,  1037,  1038,  2706,  2705,  2704,  2708,  2707,  2709
	   18,    68,   958,  1039,   967,  2712,  2711,  2710,  2714,  2713,  2715
	   19,  1040,  1038,  1041,  1035,  2718,  2717,  2716,  2719,  2708,  2720
	   20,  1035,  1042,  1043,  1044,  2723,  2722,  2721,  2725,  2724,  2726
** ... 12635 like lines cut
*Elset, elset=_Part-1-1_ALL_ELEMENTS, generate
	     1,  12655,      1
*Nset, nset=Part-1-1_Set-1, generate
	     1,  18918,      1
*Elset, elset=Part-1-1_Set-1, generate
	     1,  12655,      1
** Section: Section-1
**
** Properties modified via distribution tables
** Added by the optimization system
**
**
** NEW ELEMENT SET ADDED BY THE OPTIMIZATION SYSTEM
**
*ELSET, ELSET=EL_P1_M1621335031_1, GENERATE
	1, 12655, 1
**
** NEW PROPERTY BASED ON PROPERTY 1 ADDED BY THE OPTIMIZATION SYSTEM
**
*SOLID SECTION, ELSET=EL_P1_M1621335031_1, MATERIAL=MATERIAL-1
	1.0
*SCALESTIFFNESS
	__SMATSO_DISTRIBUTION_STIFFNESS_1
*SCALEMASS
	__SMATSO_DISTRIBUTION_MASS_1
**
** Distribution table added by the optimization system
**
*INCLUDE, INPUT=sample02_3D_tosca_distribution.inp
*System
*Nset, nset=Set-1
	     5,     6,     7,     8,    64,    65,    66,    67,    68,    69,    70,    71,    72,    92,    93,    94
	    95,    96,    97,    98,    99,   100,   139,   140,   141,   142,   143,   144,   145,   146,   147,   148
	   149,   150,   151,   152,   153,   154,   155,   156,   922,   923,   924,   925,   926,   927,   928,   929
	   930,   931,   932,   933,   934,   935,   936,   937,   938,   939,   940,   941,   942,   943,   944,   945
	   946,   947,   948,   949,   950,   951,   952,   953,   954,   955,   956,   957,   958,   959,   960,   961
	   962,   963,   964,   965,   966,   967,   968,   969,   970,   971,   972,   973,   974,   975,   976,   977
	   978,   979,   980,   981,   982,   983,   984,   985,   986,   987,   988,   989,   990,   991,   992,   993
	   994,   995,   996,   997,   998,   999,  1000,  1001,  1002,  2712,  2713,  2714,  3091,  3461,  3463,  3465
	  3655,  3657,  3659,  3859,  4345,  4468,  4471,  4537,  4539,  4541,  5144,  5148,  5150,  5152,  5301,  5303
	  5872,  5919,  5921,  5923,  6640,  6676,  6791,  6793,  6795,  6829,  7082,  7084,  7086,  7138,  7140,  7142
	  7788,  8781,  8783,  8785,  8825,  8827,  8878,  8880,  8882,  8985,  9176,  9450,  9464,  9485,  9789,  9790
	  9792,  9793,  9795,  9846,  9896,  9898,  9900,  9923,  9925,  9927, 10011, 10013, 10015, 10042, 10054, 10056
	 10058, 10301, 10367, 10368, 10475, 10496, 10590, 10688, 10690, 10692, 10746, 10748, 10751, 10766, 10768, 10770
	 10781, 10783, 10784, 10848, 11026, 11039, 11040, 11041, 11118, 11119, 11120, 11297, 11299, 11302, 11304, 11306
	 11318, 11760, 11812, 11813, 11962, 12120, 12121, 12152, 12154, 12156, 12159, 12160, 12162, 12180, 12181, 12231
	 12374, 12376, 12549, 12550, 12565, 12567, 12569, 12585, 12587, 12599, 12601, 12603, 12655, 12657, 12793, 12822
	 12824, 12897, 12899, 13033, 13047, 13062, 13065, 13216, 13228, 13241, 13455, 13607, 13609, 13611, 13783, 13824
	 13826, 13828, 13869, 13881, 13883, 13884, 14005, 14009, 14010, 14012, 14034, 14067, 14069, 14071, 14145, 14196
	 14198, 14200, 14243, 14245, 14253, 14255, 14256, 14328, 14540, 14737, 14738, 14763, 14780, 14795, 14797, 14799
	 14821, 14822, 14824, 15239, 15385, 15396, 15397, 15399, 15401, 15403, 15405, 15440, 15442, 15444, 15881, 15884
** ... 8 like lines cut
*Elset, elset=Set-1
	    18,   207,   259,   524,   557,   784,   830,  1123,  1157,  1593,  1672,  1688,  2243,  2260,  2275,  2307
	  2633,  2634,  2674,  2686,  2719,  2737,  2860,  2960,  3008,  3036,  3043,  3051,  3110,  3156,  3191,  3252
	  3254,  3377,  3454,  3485,  3665,  3669,  3683,  3766,  3854,  3870,  3879,  3888,  3912,  3994,  4005,  4045
	  4137,  4217,  4225,  4345,  4427,  4539,  4557,  4564,  4612,  4625,  4649,  4729,  4754,  4758,  4989,  5016
	  5029,  5329,  5330,  5349,  5351,  5619,  5622,  5840,  5871,  5888,  5903,  5955,  5987,  6011,  6015,  6022
	  6079,  6137,  6150,  6214,  6877,  6878,  6887,  6888,  6889,  6893,  6894,  6914,  6934,  6944,  6950,  6951
	  6952,  6959,  6967,  6986,  7020,  7021,  7023,  7025,  7038,  7039,  7046,  7052,  7058,  7062,  7064,  7068
	  7080,  7081,  7088,  7104,  7105,  7111,  7114,  7117,  7128,  7130,  7143,  7148,  7167,  7168,  7175,  7185
	  7191,  7202,  7205,  7207,  7211,  7215,  7219,  7221,  7223,  7227,  7229,  7238,  7240,  7242,  7244,  7249
	  7250,  7260,  7261,  7263,  7270,  7273,  7312,  7403,  7409,  7427,  7433,  7436,  7484,  7544,  7545,  7555
	  7681,  7723,  7894,  7895,  7905,  7906,  7971,  8155,  8205,  8233,  8234,  8349,  8350,  8352,  8353,  8714
	  8899,  8977,  8981,  9041,  9043,  9057,  9075,  9106,  9242,  9251,  9264,  9266,  9269,  9465,  9551,  9705
	 10198, 10199, 10241, 10259, 10262, 10520, 10907, 11127
*Nset, nset=Set-3
	 22,
*Nset, nset=Set-6, generate
	     1,  18918,      1
*Elset, elset=Set-6, generate
	     1,  12655,      1
** 
** MATERIALS
** 
*MATERIAL, NAME=MATERIAL-1
*Elastic
	 2.1e+08, 0.3
** 
** BOUNDARY CONDITIONS
** 
** Name: BC-1 Type: Symmetry/Antisymmetry/Encastre
*Boundary
	Set-1, ENCASTRE
** ----------------------------------------------------------------
** 
** STEP: Step-1
** 
*STEP, NAME=Step-1, NLGEOM=NO, SENSITIVITY=ADJOINT
*Static
	1., 1., 1e-05, 1.
** 
** LOADS
** 
** Name: Load-1   Type: Concentrated force
*Cload
	Set-3, 2, -300.
** 
** OUTPUT REQUESTS
** 
*Restart, write, frequency=0
** 
** FIELD OUTPUT: F-Output-1
** 
*Output, field, variable=PRESELECT
** 
** HISTORY OUTPUT: H-Output-1
** 
*Output, history, variable=PRESELECT
**
** START OF RESULT REQUEST FOR OPTIMIZATION
**
*DESIGN RESPONSE, NAME=D-RESPONSE-1
*GLOBAL RESPONSE
	STIFF
**
** END OF RESULT REQUEST FOR OPTIMIZATION
**
*End Step
