**
**     _____ _ _         __  __           _ _  __ _          _ 
**    |  ___(_) | ___   |  \/  | ___   __| (_)/ _(_) ___  __| |
**    | |_  | | |/ _ \  | |\/| |/ _ \ / _` | | |_| |/ _ \/ _` |
**    |  _| | | |  __/  | |  | | (_) | (_| | |  _| |  __/ (_| |
**    |_|   |_|_|\___|  |_|  |_|\___/ \__,_|_|_| |_|\___|\__,_|
**
**    by SIMULIA Tosca Structure 3DEXPERIENCE R2021x Build R423 - 20200319T210011Z
**    Time: Tue Jun 15 14:14:39 2021
**
*Heading
** Job name: Cantilever_line-load-Job Model name: Model-1
** Generated by: Abaqus/CAE 2021
*Preprint, echo=NO, model=NO, history=NO, contact=NO
** ----------------------------------------------------------------
** 
** PART INSTANCE: Part-1-1
** 
*Node
	      1,         100.,          50.,          50.
	      2,         100.,           0.,          50.
	      3,         100.,           0.,           0.
	      4,         100.,          50.,           0.
	      5,           0.,           0.,          50.
	      6,           0.,           0.,           0.
	      7,           0.,          50.,           0.
	      8,           0.,          50.,          50.
	      9,         100.,         47.5,          50.
	     10,         100.,          45.,          50.
	     11,         100.,         42.5,          50.
	     12,         100.,          40.,          50.
	     13,         100.,         37.5,          50.
	     14,         100.,          35.,          50.
	     15,         100.,         32.5,          50.
	     16,         100.,          30.,          50.
	     17,         100.,         27.5,          50.
	     18,         100.,          25.,          50.
	     19,         100.,         22.5,          50.
	     20,         100.,          20.,          50.
** ... 14301 like lines cut
*Element, type=C3D4
	    1,  4003,  4004,  4005,  4006
	    2,  4007,  4008,  4009,  4003
	    3,  4010,  4011,  4012,  4013
	    4,  4003,  4014,  4015,  4016
	    5,  4003,  4007,  4006,  4017
	    6,  4003,  4008,  4015,  4014
	    7,  4018,  4019,  4020,  4021
	    8,  4018,  4022,  4023,  4021
	    9,  4018,  4023,  4022,  4024
	   10,  4018,  4025,  4026,  4019
	   11,  4018,  4027,  4019,  4023
	   12,  4018,  4028,  4029,  4030
	   13,  4031,  4032,  4033,  4034
	   14,  4032,  4035,  4036,  4037
	   15,  4038,   200,  2159,  2120
	   16,  4032,  4039,  4033,  4040
	   17,  4032,  4034,  4041,  4025
	   18,  4032,  4042,  4025,  4035
	   19,  4032,  4025,  4033,  4034
	   20,  4032,  4040,  4025,  4042
** ... 74027 like lines cut
*Elset, elset=_Part-1-1_ALL_ELEMENTS, generate
	     1,  74047,      1
*Nset, nset=Part-1-1_Set-cuboid, generate
	     1,  14321,      1
*Elset, elset=Part-1-1_Set-cuboid, generate
	     1,  74047,      1
** Section: Section-1
**
** Properties modified via distribution tables
** Added by the optimization system
**
**
** NEW ELEMENT SET ADDED BY THE OPTIMIZATION SYSTEM
**
*ELSET, ELSET=EL_P1_M1623759279_1, GENERATE
	1, 74047, 1
**
** NEW PROPERTY BASED ON PROPERTY 1 ADDED BY THE OPTIMIZATION SYSTEM
**
*SOLID SECTION, ELSET=EL_P1_M1623759279_1, MATERIAL=MATERIAL-1
	1.0
*SCALESTIFFNESS
	__SMATSO_DISTRIBUTION_STIFFNESS_1
*SCALEMASS
	__SMATSO_DISTRIBUTION_MASS_1
**
** Distribution table added by the optimization system
**
*INCLUDE, INPUT=sample06_C3D4_cantilever_line_tosca_distribution.inp
*System
*Nset, nset=Set-bc-face
	    5,    6,    7,    8,  124,  125,  126,  127,  128,  129,  130,  131,  132,  133,  134,  135
	  136,  137,  138,  139,  140,  141,  142,  182,  183,  184,  185,  186,  187,  188,  189,  190
	  191,  192,  193,  194,  195,  196,  197,  198,  199,  200,  279,  280,  281,  282,  283,  284
	  285,  286,  287,  288,  289,  290,  291,  292,  293,  294,  295,  296,  297,  298,  299,  300
	  301,  302,  303,  304,  305,  306,  307,  308,  309,  310,  311,  312,  313,  314,  315,  316
	 3642, 3643, 3644, 3645, 3646, 3647, 3648, 3649, 3650, 3651, 3652, 3653, 3654, 3655, 3656, 3657
	 3658, 3659, 3660, 3661, 3662, 3663, 3664, 3665, 3666, 3667, 3668, 3669, 3670, 3671, 3672, 3673
	 3674, 3675, 3676, 3677, 3678, 3679, 3680, 3681, 3682, 3683, 3684, 3685, 3686, 3687, 3688, 3689
	 3690, 3691, 3692, 3693, 3694, 3695, 3696, 3697, 3698, 3699, 3700, 3701, 3702, 3703, 3704, 3705
	 3706, 3707, 3708, 3709, 3710, 3711, 3712, 3713, 3714, 3715, 3716, 3717, 3718, 3719, 3720, 3721
	 3722, 3723, 3724, 3725, 3726, 3727, 3728, 3729, 3730, 3731, 3732, 3733, 3734, 3735, 3736, 3737
	 3738, 3739, 3740, 3741, 3742, 3743, 3744, 3745, 3746, 3747, 3748, 3749, 3750, 3751, 3752, 3753
	 3754, 3755, 3756, 3757, 3758, 3759, 3760, 3761, 3762, 3763, 3764, 3765, 3766, 3767, 3768, 3769
	 3770, 3771, 3772, 3773, 3774, 3775, 3776, 3777, 3778, 3779, 3780, 3781, 3782, 3783, 3784, 3785
	 3786, 3787, 3788, 3789, 3790, 3791, 3792, 3793, 3794, 3795, 3796, 3797, 3798, 3799, 3800, 3801
	 3802, 3803, 3804, 3805, 3806, 3807, 3808, 3809, 3810, 3811, 3812, 3813, 3814, 3815, 3816, 3817
	 3818, 3819, 3820, 3821, 3822, 3823, 3824, 3825, 3826, 3827, 3828, 3829, 3830, 3831, 3832, 3833
	 3834, 3835, 3836, 3837, 3838, 3839, 3840, 3841, 3842, 3843, 3844, 3845, 3846, 3847, 3848, 3849
	 3850, 3851, 3852, 3853, 3854, 3855, 3856, 3857, 3858, 3859, 3860, 3861, 3862, 3863, 3864, 3865
	 3866, 3867, 3868, 3869, 3870, 3871, 3872, 3873, 3874, 3875, 3876, 3877, 3878, 3879, 3880, 3881
** ... 8 like lines cut
*Elset, elset=Set-bc-face
	   247,   259,   339,   486,   604,   606,   691,   722,   773,   967,   976,  1277,  1377,  1595,  1671,  1891
	  2091,  2141,  2332,  2390,  2464,  2595,  2686,  2714,  2749,  2818,  2827,  3236,  3465,  3990,  4088,  4261
	  4347,  4387,  4466,  4526,  4769,  4772,  4896,  5077,  5198,  5310,  5588,  5602,  5657,  5669,  5680,  5822
	  5824,  5868,  6014,  6023,  6024,  6057,  6059,  6079,  6475,  7042,  7091,  7780,  7888,  8144,  8504,  8774
	  8777,  8785,  8806,  8832,  8856,  8872,  9039,  9217,  9259,  9261,  9653,  9834,  9867, 10068, 10069, 10071
	 10149, 10441, 10476, 10478, 10488, 10545, 10650, 10654, 10670, 10845, 10861, 10863, 10871, 10875, 10881, 10882
	 10884, 10940, 11071, 11100, 11102, 11281, 11484, 11537, 11880, 12002, 12076, 12081, 12086, 12099, 12127, 12182
	 12254, 12265, 12271, 12283, 12488, 12560, 12593, 12617, 12636, 12646, 12939, 12940, 13166, 13272, 13328, 13396
	 13542, 13621, 13655, 13789, 13806, 13840, 14059, 14076, 14089, 14092, 14096, 14292, 14301, 14303, 14322, 14328
	 14334, 14508, 14511, 14524, 14528, 14531, 14541, 14688, 14745, 14747, 14749, 14752, 14758, 14771, 14900, 14944
	 14976, 15085, 15163, 15165, 15263, 15293, 15314, 15349, 15365, 15378, 15472, 15556, 15567, 15574, 15579, 15585
	 15663, 15690, 15701, 15746, 15784, 15943, 15957, 15960, 15966, 15970, 16141, 16154, 16300, 16342, 16540, 16733
	 17647, 17761, 17972, 17990, 18081, 18206, 18221, 18247, 18305, 18461, 18640, 18656, 18669, 18670, 18671, 18680
	 18684, 18855, 18862, 18863, 18870, 18875, 18877, 18884, 19067, 19074, 19082, 19106, 19132, 19266, 19269, 19273
	 19285, 19292, 19293, 19305, 19477, 19492, 19494, 19502, 19712, 19753, 19904, 19909, 19911, 19914, 19919, 20320
	 20360, 20567, 20760, 20961, 20969, 20971, 21159, 21361, 21369, 21378, 21448, 21449, 21450, 21454, 21467, 21470
	 21481, 21492, 21501, 21509, 21556, 21567, 21574, 21605, 21610, 21615, 21629, 21659, 21670, 21705, 21708, 21719
	 21726, 21735, 21794, 21805, 21810, 21821, 21828, 21869, 21885, 21918, 21974, 21991, 21996, 22016, 22018, 22093
	 22110, 22118, 22120, 22134, 22213, 22214, 22223, 22232, 22337, 22444, 22445, 22512, 22938, 23293, 23379, 23382
	 23405, 23478, 23505, 23616, 23712, 23926, 24324, 24533, 24640, 24754, 24974, 25068, 25142, 25724, 25729, 25737
** ... 30 like lines cut
*Nset, nset=Set-line-load
	  2,  3, 28, 29, 30, 31, 32, 33, 34, 35, 36, 37, 38, 39, 40, 41
	 42, 43, 44, 45, 46
*Elset, elset=Set-line-load
	  4733,  4965,  6319,  6335,  6445,  6452,  6551,  6662,  6764,  7188,  7294,  7492,  7578,  7591,  7675,  8317
	  8893,  9101,  9316,  9473,  9691, 10481, 10726, 11494, 11684, 11700, 12093, 12285, 13433, 20768, 28822, 28828
	 31072, 35962, 38515, 38846, 39187, 40770, 42004, 42410
*Nset, nset=Set-line-load-node
	  2,  3, 28, 29, 30, 31, 32, 33, 34, 35, 36, 37, 38, 39, 40, 41
	 42, 43, 44, 45, 46
** 
** MATERIALS
** 
*MATERIAL, NAME=MATERIAL-1
*Elastic
	 2.1e+08, 0.3
** 
** BOUNDARY CONDITIONS
** 
** Name: BC-1 Type: Symmetry/Antisymmetry/Encastre
*Boundary
	Set-bc-face, ENCASTRE
** ----------------------------------------------------------------
** 
** STEP: Step-1
** 
*STEP, NAME=Step-1, NLGEOM=NO, SENSITIVITY=ADJOINT
*Static
	1., 1., 1e-05, 1.
** 
** LOADS
** 
** Name: Load-1   Type: Concentrated force
*Cload
	Set-line-load-node, 2, -200.
** 
** OUTPUT REQUESTS
** 
*Restart, write, frequency=0
** 
** FIELD OUTPUT: F-Output-1
** 
*Output, field, variable=PRESELECT
** 
** HISTORY OUTPUT: H-Output-1
** 
*Output, history, variable=PRESELECT
**
** START OF RESULT REQUEST FOR OPTIMIZATION
**
*DESIGN RESPONSE, NAME=D-RESPONSE-1
*GLOBAL RESPONSE
	STIFF
**
** END OF RESULT REQUEST FOR OPTIMIZATION
**
*End Step
