**
**     _____ _ _         __  __           _ _  __ _          _ 
**    |  ___(_) | ___   |  \/  | ___   __| (_)/ _(_) ___  __| |
**    | |_  | | |/ _ \  | |\/| |/ _ \ / _` | | |_| |/ _ \/ _` |
**    |  _| | | |  __/  | |  | | (_) | (_| | |  _| |  __/ (_| |
**    |_|   |_|_|\___|  |_|  |_|\___/ \__,_|_|_| |_|\___|\__,_|
**
**    by SIMULIA Tosca Structure 3DEXPERIENCE R2021x Build R423 - 20200319T210011Z
**    Time: Wed May 19 09:31:47 2021
**
*Heading
** Job name: coarseMeshTet-Job Model name: Model-1
** Generated by: Abaqus/CAE 2021
*Preprint, echo=NO, model=NO, history=NO, contact=NO
** ----------------------------------------------------------------
** 
** PART INSTANCE: Part-1-1
** 
*Node
	      1,         100.,          50.,          50.
	      2,         100.,           0.,          50.
	      3,         100.,           0.,           0.
	      4,         100.,          50.,           0.
	      5,           0.,           0.,          50.
	      6,           0.,           0.,           0.
	      7,           0.,          50.,           0.
	      8,           0.,          50.,          50.
	      9,         100.,          40.,          50.
	     10,         100.,          30.,          50.
	     11,         100.,          20.,          50.
	     12,         100.,          10.,          50.
	     13,         100.,           0.,          40.
	     14,         100.,           0.,          30.
	     15,         100.,           0.,          20.
	     16,         100.,           0.,          10.
	     17,         100.,          10.,           0.
	     18,         100.,          20.,           0.
	     19,         100.,          30.,           0.
	     20,         100.,          40.,           0.
** ... 444 like lines cut
*Element, type=C3D4
	   1, 253, 254, 255, 256
	   2, 253, 257, 258, 259
	   3, 253, 260, 257, 259
	   4, 253, 256, 261, 262
	   5, 262, 256, 263, 253
	   6, 256, 264, 262, 265
	   7, 256, 264, 266, 261
	   8, 256, 253, 261, 255
	   9, 256, 267, 254, 255
	  10, 256, 268, 254, 269
	  11, 256, 265, 269, 270
	  12, 256, 267, 266, 270
	  13, 271, 272, 273, 274
	  14, 271, 273, 275, 276
	  15, 277, 278, 279, 271
	  16, 271, 276, 278, 280
	  17, 271, 280, 278, 281
	  18, 258, 254, 255, 253
	  19, 262, 282, 261, 283
	  20, 262, 284, 285, 286
** ... 1901 like lines cut
*Elset, elset=_Part-1-1_ALL_ELEMENTS, generate
	    1,  1921,     1
*Nset, nset=Part-1-1_Set-1, generate
	   1,  464,    1
*Elset, elset=Part-1-1_Set-1, generate
	    1,  1921,     1
** Section: Section-1
**
** Properties modified via distribution tables
** Added by the optimization system
**
**
** NEW ELEMENT SET ADDED BY THE OPTIMIZATION SYSTEM
**
*ELSET, ELSET=EL_P1_M1621409507_1, GENERATE
	1, 1921, 1
**
** NEW PROPERTY BASED ON PROPERTY 1 ADDED BY THE OPTIMIZATION SYSTEM
**
*SOLID SECTION, ELSET=EL_P1_M1621409507_1, MATERIAL=MATERIAL-1
	1.0
*SCALESTIFFNESS
	__SMATSO_DISTRIBUTION_STIFFNESS_1
*SCALEMASS
	__SMATSO_DISTRIBUTION_MASS_1
**
** Distribution table added by the optimization system
**
*INCLUDE, INPUT=sample03_3D_C3D4_tosca_distribution.inp
*System
*Nset, nset=Set-1
	   5,   6,   7,   8,  34,  35,  36,  37,  47,  48,  49,  50,  69,  70,  71,  72
	  73,  74,  75,  76, 237, 238, 239, 240, 241, 242, 243, 244, 245, 246, 247, 248
	 249, 250, 251, 252
*Elset, elset=Set-1
	  140,  183,  464,  670,  673,  713,  784,  877,  881, 1031, 1035, 1067, 1069, 1088, 1093, 1106
	 1112, 1113, 1123, 1176, 1180, 1214, 1224, 1226, 1315, 1329, 1336, 1346, 1349, 1361, 1470, 1471
	 1476, 1479, 1501, 1502, 1506, 1515, 1520, 1541, 1620, 1627, 1665, 1672, 1699, 1718, 1803, 1806
	 1811, 1920
*Nset, nset=Set-5, generate
	   1,  464,    1
*Elset, elset=Set-5, generate
	    1,  1921,     1
*Elset, elset=_Surf-1_S3
	   63,   64,  141,  323,  360,  461,  477,  560,  583,  584,  621,  635,  639,  758,  765,  830
	  849,  855,  896,  903,  932,  978,  980,  984, 1080, 1158, 1165, 1191, 1212, 1281, 1285, 1298
	 1307, 1326, 1332, 1366, 1387, 1408, 1414, 1419, 1432, 1444, 1447, 1461, 1477, 1495, 1535, 1544
	 1550, 1552, 1558, 1592, 1604, 1630, 1649, 1651, 1679, 1681, 1705, 1746, 1750, 1767, 1775, 1780
	 1785, 1786, 1805, 1812, 1821, 1826, 1829, 1830, 1831, 1850, 1851, 1854, 1864, 1868, 1870, 1875
	 1878, 1883, 1884, 1888, 1891, 1892, 1893, 1896, 1903, 1905, 1912, 1913, 1916, 1917, 1918, 1921
*Elset, elset=_Surf-1_S2
	  997, 1882
*Elset, elset=_Surf-1_S4
	 1160, 1914
*Surface, type=ELEMENT, name=Surf-1
	_Surf-1_S3, S3
	_Surf-1_S2, S2
	_Surf-1_S4, S4
** 
** MATERIALS
** 
*MATERIAL, NAME=MATERIAL-1
*Elastic
	 2.1e+08, 0.3
** 
** BOUNDARY CONDITIONS
** 
** Name: BC-1 Type: Symmetry/Antisymmetry/Encastre
*Boundary
	Set-1, ENCASTRE
** ----------------------------------------------------------------
** 
** STEP: Step-1
** 
*STEP, NAME=Step-1, NLGEOM=NO, SENSITIVITY=ADJOINT
*Static
	1., 1., 1e-05, 1.
** 
** LOADS
** 
** Name: Load-1   Type: Pressure
*Dsload
	Surf-1, P, -0.2
** 
** OUTPUT REQUESTS
** 
*Restart, write, frequency=0
** 
** FIELD OUTPUT: F-Output-1
** 
*Output, field, variable=PRESELECT
** 
** HISTORY OUTPUT: H-Output-1
** 
*Output, history, variable=PRESELECT
**
** START OF RESULT REQUEST FOR OPTIMIZATION
**
*DESIGN RESPONSE, NAME=D-RESPONSE-1
*GLOBAL RESPONSE
	STIFF
**
** END OF RESULT REQUEST FOR OPTIMIZATION
**
*End Step
